<?xml version="1.0" encoding="UTF-8"?>

<!-- generated on 2025-01-07 19:52:26.163081 by osmWebWizard.py UNKNOWN
<configuration>
    <net-file value="/home/hduong/Downloads/2025-01-07-19-52-19/osm.net.xml.gz"/>
    <output-trip-file value="/home/hduong/Downloads/2025-01-07-19-52-19/osm.passenger.trips.xml"/>
    <route-file value="/home/hduong/Downloads/2025-01-07-19-52-19/osm.passenger.rou.xml"/>
    <prefix value="veh"/>
    <trip-attributes value="departLane=&quot;best&quot;"/>
    <fringe-start-attributes value="departSpeed=&quot;max&quot;"/>
    <vehicle-class value="passenger"/>
    <lanes value="True"/>
    <fringe-factor value="75"/>
    <allow-fringe.min-length value="1000.0"/>
    <via-edge-types value="highway.motorway,highway.motorway_link,highway.trunk_link,highway.primary_link,highway.secondary_link,highway.tertiary_link"/>
    <min-distance value="300.0"/>
    <min-distance.fringe value="10.0"/>
    <remove-loops value="True"/>
    <validate value="True"/>
    <insertion-density value="200.0"/>
</configuration>
-->

<!-- generated on 2025-01-07 19:52:26 by Eclipse SUMO duarouter Version 1.21.0
<duarouterConfiguration xmlns:xsi="http://www.w3.org/2001/XMLSchema-instance" xsi:noNamespaceSchemaLocation="http://sumo.dlr.de/xsd/duarouterConfiguration.xsd">

    <input>
        <net-file value="/home/hduong/Downloads/2025-01-07-19-52-19/osm.net.xml.gz"/>
        <route-files value="/home/hduong/Downloads/2025-01-07-19-52-19/osm.passenger.trips.xml"/>
    </input>

    <output>
        <output-file value="/home/hduong/Downloads/2025-01-07-19-52-19/osm.passenger.trips.xml.tmp"/>
        <alternatives-output value="NUL"/>
        <write-trips value="true"/>
    </output>

    <processing>
        <remove-loops value="true"/>
    </processing>

    <time>
        <begin value="0.0"/>
        <end value="3600.0"/>
    </time>

    <report>
        <no-warnings value="true"/>
        <ignore-errors value="true"/>
        <no-step-log value="true"/>
    </report>

</duarouterConfiguration>
-->

<routes xmlns:xsi="http://www.w3.org/2001/XMLSchema-instance" xsi:noNamespaceSchemaLocation="http://sumo.dlr.de/xsd/routes_file.xsd">
    <vType id="veh_passenger" vClass="passenger"/>
    <trip id="veh0" type="veh_passenger" depart="0.00" departLane="best" departSpeed="max" from="218444002" to="-1052540470#0"/>
    <trip id="veh2" type="veh_passenger" depart="1.74" departLane="best" departSpeed="max" from="216752338" to="-1052540470#0"/>
    <trip id="veh3" type="veh_passenger" depart="2.60" departLane="best" departSpeed="max" from="1052540470#0" to="18823744"/>
    <trip id="veh4" type="veh_passenger" depart="3.47" departLane="best" departSpeed="max" from="-1052540470#2" to="-290856107#2"/>
    <trip id="veh5" type="veh_passenger" depart="4.34" departLane="best" departSpeed="max" from="1052540470#0" to="218002367"/>
    <trip id="veh8" type="veh_passenger" depart="6.94" departLane="best" departSpeed="max" from="107605327" to="-218002362#1"/>
    <trip id="veh9" type="veh_passenger" depart="7.81" departLane="best" from="218444003#0" to="8066699#4"/>
    <trip id="veh10" type="veh_passenger" depart="8.68" departLane="best" departSpeed="max" from="-13879837#1" to="-107221737#2"/>
    <trip id="veh11" type="veh_passenger" depart="9.55" departLane="best" departSpeed="max" from="42785369#0" to="218002367"/>
    <trip id="veh13" type="veh_passenger" depart="11.28" departLane="best" departSpeed="max" from="218002362#0" to="70972311"/>
    <trip id="veh14" type="veh_passenger" depart="12.15" departLane="best" from="216752292#0" to="217130189"/>
    <trip id="veh15" type="veh_passenger" depart="13.02" departLane="best" departSpeed="max" from="42785369#0" to="243492724#0"/>
    <trip id="veh16" type="veh_passenger" depart="13.89" departLane="best" departSpeed="max" from="42785369#0" to="218002367"/>
    <trip id="veh17" type="veh_passenger" depart="14.75" departLane="best" departSpeed="max" from="219789403" to="-106686089"/>
    <trip id="veh18" type="veh_passenger" depart="15.62" departLane="best" departSpeed="max" from="1052540470#0" to="-54290282#2"/>
    <trip id="veh19" type="veh_passenger" depart="16.49" departLane="best" departSpeed="max" from="-13879837#1" to="-4399140#2"/>
    <trip id="veh20" type="veh_passenger" depart="17.36" departLane="best" departSpeed="max" from="-13879837#1" to="-54290282#2"/>
    <trip id="veh21" type="veh_passenger" depart="18.22" departLane="best" departSpeed="max" from="218444002" to="1052540461"/>
    <trip id="veh22" type="veh_passenger" depart="19.09" departLane="best" from="142456037#0" to="-290856107#2"/>
    <trip id="veh23" type="veh_passenger" depart="19.96" departLane="best" departSpeed="max" from="106686089" to="70972311"/>
    <trip id="veh24" type="veh_passenger" depart="20.83" departLane="best" departSpeed="max" from="218444002" to="218443991#0"/>
    <trip id="veh25" type="veh_passenger" depart="21.70" departLane="best" departSpeed="max" from="-42785557" to="34392045"/>
    <trip id="veh26" type="veh_passenger" depart="22.56" departLane="best" departSpeed="max" from="-42785557" to="106684760#0"/>
    <trip id="veh27" type="veh_passenger" depart="23.43" departLane="best" departSpeed="max" from="59366539" to="243492724#0"/>
    <trip id="veh28" type="veh_passenger" depart="24.30" departLane="best" departSpeed="max" from="218002362#0" to="319492117#0"/>
    <trip id="veh29" type="veh_passenger" depart="25.17" departLane="best" departSpeed="max" from="107221737#0" to="-54290282#2"/>
    <trip id="veh30" type="veh_passenger" depart="26.04" departLane="best" from="-59011335" to="70972311"/>
    <trip id="veh31" type="veh_passenger" depart="26.90" departLane="best" departSpeed="max" from="42785369#0" to="-59366539"/>
    <trip id="veh32" type="veh_passenger" depart="27.77" departLane="best" departSpeed="max" from="218444002" to="133527351#0"/>
    <trip id="veh33" type="veh_passenger" depart="28.64" departLane="best" departSpeed="max" from="106686089" to="-4399140#2"/>
    <trip id="veh34" type="veh_passenger" depart="29.51" departLane="best" departSpeed="max" from="218002362#0" to="-54290282#2"/>
    <trip id="veh35" type="veh_passenger" depart="30.37" departLane="best" departSpeed="max" from="218444002" to="5571889#0"/>
    <trip id="veh36" type="veh_passenger" depart="31.24" departLane="best" from="742178330" to="216752292#0"/>
    <trip id="veh37" type="veh_passenger" depart="32.11" departLane="best" departSpeed="max" from="-13879837#1" to="-106686089"/>
    <trip id="veh38" type="veh_passenger" depart="32.98" departLane="best" departSpeed="max" from="-218002367" to="243492724#0"/>
    <trip id="veh39" type="veh_passenger" depart="33.85" departLane="best" departSpeed="max" from="106675189#0" to="106685175#0"/>
    <trip id="veh40" type="veh_passenger" depart="34.71" departLane="best" from="70972192#0" to="155557690#0"/>
    <trip id="veh41" type="veh_passenger" depart="35.58" departLane="best" departSpeed="max" from="59366539" to="42798789#0"/>
    <trip id="veh42" type="veh_passenger" depart="36.45" departLane="best" departSpeed="max" from="-1052540470#2" to="319492117#0"/>
    <trip id="veh43" type="veh_passenger" depart="37.32" departLane="best" departSpeed="max" from="106686089" to="243492724#0"/>
    <trip id="veh44" type="veh_passenger" depart="38.19" departLane="best" departSpeed="max" from="-218002367" to="133527351#0"/>
    <trip id="veh45" type="veh_passenger" depart="39.05" departLane="best" departSpeed="max" from="216752338" to="70972311"/>
    <trip id="veh46" type="veh_passenger" depart="39.92" departLane="best" departSpeed="max" from="42785369#0" to="-54290282#2"/>
    <trip id="veh47" type="veh_passenger" depart="40.79" departLane="best" departSpeed="max" from="107221737#0" to="243492724#0"/>
    <trip id="veh48" type="veh_passenger" depart="41.66" departLane="best" departSpeed="max" from="218444002" to="-218002362#1"/>
    <trip id="veh49" type="veh_passenger" depart="42.52" departLane="best" departSpeed="max" from="23093060" to="217130189"/>
    <trip id="veh50" type="veh_passenger" depart="43.39" departLane="best" departSpeed="max" from="-1052540470#2" to="-59366539"/>
    <trip id="veh51" type="veh_passenger" depart="44.26" departLane="best" departSpeed="max" from="-1052540470#2" to="70972311"/>
    <trip id="veh52" type="veh_passenger" depart="45.13" departLane="best" departSpeed="max" from="42785369#0" to="70972311"/>
    <trip id="veh54" type="veh_passenger" depart="46.86" departLane="best" departSpeed="max" from="23093060" to="-107605327"/>
    <trip id="veh55" type="veh_passenger" depart="47.73" departLane="best" departSpeed="max" from="218002346" to="217130189"/>
    <trip id="veh56" type="veh_passenger" depart="48.60" departLane="best" departSpeed="max" from="106686089" to="42798789#0"/>
    <trip id="veh57" type="veh_passenger" depart="49.47" departLane="best" departSpeed="max" from="218002362#0" to="34392045"/>
    <trip id="veh59" type="veh_passenger" depart="51.20" departLane="best" from="61482944" to="243492724#0"/>
    <trip id="veh60" type="veh_passenger" depart="52.07" departLane="best" departSpeed="max" from="216752338" to="216752310"/>
    <trip id="veh61" type="veh_passenger" depart="52.94" departLane="best" departSpeed="max" from="-218002367" to="-4399140#2"/>
    <trip id="veh62" type="veh_passenger" depart="53.81" departLane="best" departSpeed="max" from="107605327" to="218002367"/>
    <trip id="veh63" type="veh_passenger" depart="54.67" departLane="best" departSpeed="max" from="1052540470#0" to="-290856107#2"/>
    <trip id="veh64" type="veh_passenger" depart="55.54" departLane="best" departSpeed="max" from="-13879837#1" to="243492724#0"/>
    <trip id="veh65" type="veh_passenger" depart="56.41" departLane="best" departSpeed="max" from="1052540470#0" to="5571889#0"/>
    <trip id="veh66" type="veh_passenger" depart="57.28" departLane="best" departSpeed="max" from="42785369#0" to="-106686089"/>
    <trip id="veh67" type="veh_passenger" depart="58.15" departLane="best" departSpeed="max" from="1052540470#0" to="319492117#0"/>
    <trip id="veh68" type="veh_passenger" depart="59.01" departLane="best" from="-61420385#1" to="-107605327"/>
    <trip id="veh70" type="veh_passenger" depart="60.75" departLane="best" departSpeed="max" from="218002346" to="42785577#0"/>
    <trip id="veh71" type="veh_passenger" depart="61.62" departLane="best" departSpeed="max" from="-13879837#1" to="133527351#0"/>
    <trip id="veh72" type="veh_passenger" depart="62.48" departLane="best" departSpeed="max" from="216752338" to="13879837#1"/>
    <trip id="veh73" type="veh_passenger" depart="63.35" departLane="best" departSpeed="max" from="59366539" to="-107221737#2"/>
    <trip id="veh74" type="veh_passenger" depart="64.22" departLane="best" departSpeed="max" from="216752338" to="1052540461"/>
    <trip id="veh75" type="veh_passenger" depart="65.09" departLane="best" departSpeed="max" from="216752338" to="-54290282#2"/>
    <trip id="veh76" type="veh_passenger" depart="65.96" departLane="best" departSpeed="max" from="1052540470#0" to="61420385#0"/>
    <trip id="veh77" type="veh_passenger" depart="66.82" departLane="best" departSpeed="max" from="218002362#0" to="-106686089"/>
    <trip id="veh78" type="veh_passenger" depart="67.69" departLane="best" from="-8066700#2" to="42798789#0"/>
    <trip id="veh79" type="veh_passenger" depart="68.56" departLane="best" departSpeed="max" from="42785369#0" to="-218002362#1"/>
    <trip id="veh80" type="veh_passenger" depart="69.43" departLane="best" departSpeed="max" from="218002346" to="-290856107#2"/>
    <trip id="veh81" type="veh_passenger" depart="70.30" departLane="best" departSpeed="max" from="216752338" to="-106686089"/>
    <trip id="veh82" type="veh_passenger" depart="71.16" departLane="best" from="216752297#0" to="70972311"/>
    <trip id="veh83" type="veh_passenger" depart="72.03" departLane="best" departSpeed="max" from="106686089" to="42785577#0"/>
    <trip id="veh84" type="veh_passenger" depart="72.90" departLane="best" departSpeed="max" from="216752338" to="133527351#0"/>
    <trip id="veh85" type="veh_passenger" depart="73.77" departLane="best" departSpeed="max" from="218002362#0" to="319492117#0"/>
    <trip id="veh86" type="veh_passenger" depart="74.63" departLane="best" departSpeed="max" from="-42785557" to="-59366539"/>
    <trip id="veh87" type="veh_passenger" depart="75.50" departLane="best" departSpeed="max" from="59366539" to="218002367"/>
    <trip id="veh88" type="veh_passenger" depart="76.37" departLane="best" departSpeed="max" from="218002362#0" to="34392045"/>
    <trip id="veh89" type="veh_passenger" depart="77.24" departLane="best" departSpeed="max" from="-106675189#3" to="218002367"/>
    <trip id="veh90" type="veh_passenger" depart="78.11" departLane="best" departSpeed="max" from="218002362#0" to="42798789#0"/>
    <trip id="veh91" type="veh_passenger" depart="78.97" departLane="best" departSpeed="max" from="-42785557" to="70972311"/>
    <trip id="veh92" type="veh_passenger" depart="79.84" departLane="best" departSpeed="max" from="-13879837#1" to="218002364#0"/>
    <trip id="veh93" type="veh_passenger" depart="80.71" departLane="best" departSpeed="max" from="1052540470#0" to="-107605327"/>
    <trip id="veh94" type="veh_passenger" depart="81.58" departLane="best" departSpeed="max" from="218444002" to="243492724#0"/>
    <trip id="veh95" type="veh_passenger" depart="82.45" departLane="best" departSpeed="max" from="216752338" to="218002367"/>
    <trip id="veh96" type="veh_passenger" depart="83.31" departLane="best" departSpeed="max" from="218002362#0" to="70972311"/>
    <trip id="veh98" type="veh_passenger" depart="85.05" departLane="best" departSpeed="max" from="1052540470#0" to="133527351#0"/>
    <trip id="veh99" type="veh_passenger" depart="85.92" departLane="best" departSpeed="max" from="107221737#0" to="34392045"/>
    <trip id="veh101" type="veh_passenger" depart="87.65" departLane="best" from="8066699#4" to="70972311"/>
    <trip id="veh102" type="veh_passenger" depart="88.52" departLane="best" departSpeed="max" from="-13879837#1" to="-290856107#2"/>
    <trip id="veh103" type="veh_passenger" depart="89.39" departLane="best" departSpeed="max" from="106686089" to="70972311"/>
    <trip id="veh104" type="veh_passenger" depart="90.26" departLane="best" from="142456037#0" to="-218002362#1"/>
    <trip id="veh105" type="veh_passenger" depart="91.12" departLane="best" departSpeed="max" from="42785369#0" to="319492117#0"/>
    <trip id="veh106" type="veh_passenger" depart="91.99" departLane="best" departSpeed="max" from="218444002" to="-1052540470#0"/>
    <trip id="veh107" type="veh_passenger" depart="92.86" departLane="best" departSpeed="max" from="42785369#0" to="-59366539"/>
    <trip id="veh108" type="veh_passenger" depart="93.73" departLane="best" departSpeed="max" from="-218002367" to="-107605327"/>
    <trip id="veh109" type="veh_passenger" depart="94.59" departLane="best" departSpeed="max" from="106686089" to="218002367"/>
    <trip id="veh110" type="veh_passenger" depart="95.46" departLane="best" departSpeed="max" from="219789403" to="-290856107#2"/>
    <trip id="veh111" type="veh_passenger" depart="96.33" departLane="best" departSpeed="max" from="218444002" to="-54290282#2"/>
    <trip id="veh112" type="veh_passenger" depart="97.20" departLane="best" departSpeed="max" from="218002346" to="5571889#0"/>
    <trip id="veh113" type="veh_passenger" depart="98.07" departLane="best" departSpeed="max" from="42785369#0" to="-107221737#2"/>
    <trip id="veh114" type="veh_passenger" depart="98.93" departLane="best" departSpeed="max" from="216752338" to="-54290282#2"/>
    <trip id="veh115" type="veh_passenger" depart="99.80" departLane="best" departSpeed="max" from="-1052540470#2" to="42785577#0"/>
    <trip id="veh116" type="veh_passenger" depart="100.67" departLane="best" departSpeed="max" from="218444002" to="-54290282#2"/>
    <trip id="veh117" type="veh_passenger" depart="101.54" departLane="best" departSpeed="max" from="23093060" to="217130189"/>
    <trip id="veh118" type="veh_passenger" depart="102.41" departLane="best" departSpeed="max" from="216752338" to="-1052540470#0"/>
    <trip id="veh119" type="veh_passenger" depart="103.27" departLane="best" departSpeed="max" from="-13879837#1" to="54290282#6"/>
    <trip id="veh121" type="veh_passenger" depart="105.01" departLane="best" departSpeed="max" from="42785369#0" to="218002367"/>
    <trip id="veh122" type="veh_passenger" depart="105.88" departLane="best" departSpeed="max" from="-42785557" to="-107605327"/>
    <trip id="veh123" type="veh_passenger" depart="106.74" departLane="best" departSpeed="max" from="107221737#0" to="5571889#0"/>
    <trip id="veh124" type="veh_passenger" depart="107.61" departLane="best" departSpeed="max" from="1052540470#0" to="-107221737#2"/>
    <trip id="veh125" type="veh_passenger" depart="108.48" departLane="best" departSpeed="max" from="216752338" to="243492724#0"/>
    <trip id="veh126" type="veh_passenger" depart="109.35" departLane="best" departSpeed="max" from="-42785557" to="70972311"/>
    <trip id="veh127" type="veh_passenger" depart="110.22" departLane="best" departSpeed="max" from="42785369#0" to="70972311"/>
    <trip id="veh128" type="veh_passenger" depart="111.08" departLane="best" from="34392011#1" to="42801118#0"/>
    <trip id="veh129" type="veh_passenger" depart="111.95" departLane="best" departSpeed="max" from="-1052540470#2" to="34392045"/>
    <trip id="veh130" type="veh_passenger" depart="112.82" departLane="best" from="34392011#1" to="-54290282#2"/>
    <trip id="veh132" type="veh_passenger" depart="114.56" departLane="best" departSpeed="max" from="1052540470#0" to="42798789#0"/>
    <trip id="veh133" type="veh_passenger" depart="115.42" departLane="best" departSpeed="max" from="216752338" to="-59366539"/>
    <trip id="veh134" type="veh_passenger" depart="116.29" departLane="best" departSpeed="max" from="-1052540470#2" to="-290856107#2"/>
    <trip id="veh135" type="veh_passenger" depart="117.16" departLane="best" departSpeed="max" from="107605327" to="42798789#0"/>
    <trip id="veh136" type="veh_passenger" depart="118.03" departLane="best" departSpeed="max" from="59366539" to="-54290282#2"/>
    <trip id="veh137" type="veh_passenger" depart="118.89" departLane="best" departSpeed="max" from="218444002" to="133527351#0"/>
    <trip id="veh139" type="veh_passenger" depart="120.63" departLane="best" departSpeed="max" from="59366539" to="-218002362#1"/>
    <trip id="veh140" type="veh_passenger" depart="121.50" departLane="best" departSpeed="max" from="59366539" to="-54290282#2"/>
    <trip id="veh141" type="veh_passenger" depart="122.37" departLane="best" departSpeed="max" from="-218002367" to="133527351#0"/>
    <trip id="veh142" type="veh_passenger" depart="123.23" departLane="best" departSpeed="max" from="218444002" to="243492742"/>
    <trip id="veh143" type="veh_passenger" depart="124.10" departLane="best" from="216752310" to="218002367"/>
    <trip id="veh144" type="veh_passenger" depart="124.97" departLane="best" from="106675172#0" to="319492117#0"/>
    <trip id="veh145" type="veh_passenger" depart="125.84" departLane="best" departSpeed="max" from="-1052540470#2" to="70972192#0"/>
    <trip id="veh146" type="veh_passenger" depart="126.71" departLane="best" departSpeed="max" from="218002362#0" to="319492117#0"/>
    <trip id="veh147" type="veh_passenger" depart="127.57" departLane="best" departSpeed="max" from="23093060" to="319492117#0"/>
    <trip id="veh148" type="veh_passenger" depart="128.44" departLane="best" departSpeed="max" from="107221737#0" to="42798789#0"/>
    <trip id="veh149" type="veh_passenger" depart="129.31" departLane="best" departSpeed="max" from="107221737#0" to="133527351#0"/>
    <trip id="veh150" type="veh_passenger" depart="130.18" departLane="best" departSpeed="max" from="-218002367" to="133527351#0"/>
    <trip id="veh153" type="veh_passenger" depart="132.78" departLane="best" departSpeed="max" from="107221737#0" to="217130189"/>
    <trip id="veh154" type="veh_passenger" depart="133.65" departLane="best" departSpeed="max" from="-1052540470#2" to="-54290282#2"/>
    <trip id="veh155" type="veh_passenger" depart="134.52" departLane="best" departSpeed="max" from="216752338" to="218002367"/>
    <trip id="veh156" type="veh_passenger" depart="135.38" departLane="best" departSpeed="max" from="218002346" to="5571889#0"/>
    <trip id="veh158" type="veh_passenger" depart="137.12" departLane="best" departSpeed="max" from="-13879837#1" to="216752305"/>
    <trip id="veh159" type="veh_passenger" depart="137.99" departLane="best" departSpeed="max" from="218444002" to="-61420385#5"/>
    <trip id="veh160" type="veh_passenger" depart="138.85" departLane="best" departSpeed="max" from="42785369#0" to="34392045"/>
    <trip id="veh161" type="veh_passenger" depart="139.72" departLane="best" from="218444003#0" to="-4399140#2"/>
    <trip id="veh163" type="veh_passenger" depart="141.46" departLane="best" departSpeed="max" from="1052540470#0" to="13879837#1"/>
    <trip id="veh164" type="veh_passenger" depart="142.33" departLane="best" departSpeed="max" from="42785369#0" to="-106686093#6"/>
    <trip id="veh165" type="veh_passenger" depart="143.19" departLane="best" departSpeed="max" from="216752338" to="243492724#0"/>
    <trip id="veh167" type="veh_passenger" depart="144.93" departLane="best" departSpeed="max" from="218002346" to="-4399140#2"/>
    <trip id="veh168" type="veh_passenger" depart="145.80" departLane="best" departSpeed="max" from="218444002" to="-1052540470#0"/>
    <trip id="veh169" type="veh_passenger" depart="146.67" departLane="best" departSpeed="max" from="23093060" to="42785577#0"/>
    <trip id="veh170" type="veh_passenger" depart="147.53" departLane="best" from="162461554#0" to="133527351#0"/>
    <trip id="veh171" type="veh_passenger" depart="148.40" departLane="best" departSpeed="max" from="-42785557" to="70972311"/>
    <trip id="veh172" type="veh_passenger" depart="149.27" departLane="best" departSpeed="max" from="218002362#0" to="-106686089"/>
    <trip id="veh173" type="veh_passenger" depart="150.14" departLane="best" departSpeed="max" from="1052540470#0" to="42798789#0"/>
    <trip id="veh175" type="veh_passenger" depart="151.87" departLane="best" departSpeed="max" from="42785369#0" to="217130189"/>
    <trip id="veh177" type="veh_passenger" depart="153.61" departLane="best" departSpeed="max" from="218002346" to="-5082515#2"/>
    <trip id="veh178" type="veh_passenger" depart="154.48" departLane="best" departSpeed="max" from="23093060" to="216752321"/>
    <trip id="veh179" type="veh_passenger" depart="155.34" departLane="best" departSpeed="max" from="218444002" to="-54290282#2"/>
    <trip id="veh180" type="veh_passenger" depart="156.21" departLane="best" departSpeed="max" from="-13879837#1" to="-54290282#2"/>
    <trip id="veh181" type="veh_passenger" depart="157.08" departLane="best" departSpeed="max" from="106686089" to="-59366539"/>
    <trip id="veh182" type="veh_passenger" depart="157.95" departLane="best" departSpeed="max" from="218002362#0" to="-107605327"/>
    <trip id="veh183" type="veh_passenger" depart="158.82" departLane="best" departSpeed="max" from="1052540470#0" to="319492117#0"/>
    <trip id="veh184" type="veh_passenger" depart="159.68" departLane="best" departSpeed="max" from="219789403" to="-106686089"/>
    <trip id="veh185" type="veh_passenger" depart="160.55" departLane="best" departSpeed="max" from="216752338" to="217130189"/>
    <trip id="veh186" type="veh_passenger" depart="161.42" departLane="best" departSpeed="max" from="42785369#0" to="40429513#3"/>
    <trip id="veh187" type="veh_passenger" depart="162.29" departLane="best" from="216752304" to="-1052540470#0"/>
    <trip id="veh188" type="veh_passenger" depart="163.15" departLane="best" departSpeed="max" from="42785369#0" to="70972311"/>
    <trip id="veh189" type="veh_passenger" depart="164.02" departLane="best" departSpeed="max" from="216752338" to="34392045"/>
    <trip id="veh190" type="veh_passenger" depart="164.89" departLane="best" departSpeed="max" from="1052540470#0" to="-290856107#2"/>
    <trip id="veh191" type="veh_passenger" depart="165.76" departLane="best" departSpeed="max" from="216752338" to="-1052540470#0"/>
    <trip id="veh192" type="veh_passenger" depart="166.63" departLane="best" departSpeed="max" from="216752338" to="-218002362#1"/>
    <trip id="veh193" type="veh_passenger" depart="167.49" departLane="best" from="217679070" to="-107605327"/>
    <trip id="veh194" type="veh_passenger" depart="168.36" departLane="best" departSpeed="max" from="218444002" to="-1052540470#0"/>
    <trip id="veh195" type="veh_passenger" depart="169.23" departLane="best" from="216752329#1" to="217130189"/>
    <trip id="veh196" type="veh_passenger" depart="170.10" departLane="best" departSpeed="max" from="-218002367" to="13879837#1"/>
    <trip id="veh197" type="veh_passenger" depart="170.97" departLane="best" from="-59743545#1" to="-59366539"/>
    <trip id="veh198" type="veh_passenger" depart="171.83" departLane="best" departSpeed="max" from="23093060" to="106684758#1"/>
    <trip id="veh199" type="veh_passenger" depart="172.70" departLane="best" departSpeed="max" from="23093060" to="42798789#0"/>
    <trip id="veh200" type="veh_passenger" depart="173.57" departLane="best" from="106509784" to="-107221737#2"/>
    <trip id="veh201" type="veh_passenger" depart="174.44" departLane="best" departSpeed="max" from="-1052540470#2" to="217130189"/>
    <trip id="veh202" type="veh_passenger" depart="175.30" departLane="best" from="8153633" to="1052540461"/>
    <trip id="veh203" type="veh_passenger" depart="176.17" departLane="best" departSpeed="max" from="218444002" to="42785577#0"/>
    <trip id="veh204" type="veh_passenger" depart="177.04" departLane="best" departSpeed="max" from="-1052540470#2" to="-218002362#1"/>
    <trip id="veh205" type="veh_passenger" depart="177.91" departLane="best" departSpeed="max" from="-218002367" to="319492117#0"/>
    <trip id="veh206" type="veh_passenger" depart="178.78" departLane="best" departSpeed="max" from="218002362#0" to="-290856107#2"/>
    <trip id="veh207" type="veh_passenger" depart="179.64" departLane="best" departSpeed="max" from="219789403" to="40429513#5"/>
    <trip id="veh208" type="veh_passenger" depart="180.51" departLane="best" departSpeed="max" from="-42785557" to="218443988#0"/>
    <trip id="veh209" type="veh_passenger" depart="181.38" departLane="best" departSpeed="max" from="23093060" to="-107605327"/>
    <trip id="veh210" type="veh_passenger" depart="182.25" departLane="best" departSpeed="max" from="42785369#0" to="70972311"/>
    <trip id="veh211" type="veh_passenger" depart="183.11" departLane="best" departSpeed="max" from="-218002367" to="-1052540470#0"/>
    <trip id="veh212" type="veh_passenger" depart="183.98" departLane="best" departSpeed="max" from="107221737#0" to="319492117#0"/>
    <trip id="veh213" type="veh_passenger" depart="184.85" departLane="best" departSpeed="max" from="59366539" to="133527351#0"/>
    <trip id="veh214" type="veh_passenger" depart="185.72" departLane="best" departSpeed="max" from="219789403" to="-107221737#2"/>
    <trip id="veh215" type="veh_passenger" depart="186.59" departLane="best" departSpeed="max" from="219789403" to="243492724#0"/>
    <trip id="veh216" type="veh_passenger" depart="187.45" departLane="best" departSpeed="max" from="-13879837#1" to="42785577#0"/>
    <trip id="veh217" type="veh_passenger" depart="188.32" departLane="best" departSpeed="max" from="42785369#0" to="218002367"/>
    <trip id="veh218" type="veh_passenger" depart="189.19" departLane="best" departSpeed="max" from="-218002367" to="70972311"/>
    <trip id="veh220" type="veh_passenger" depart="190.93" departLane="best" departSpeed="max" from="216752338" to="1052540461"/>
    <trip id="veh221" type="veh_passenger" depart="191.79" departLane="best" departSpeed="max" from="218444002" to="42798789#0"/>
    <trip id="veh222" type="veh_passenger" depart="192.66" departLane="best" departSpeed="max" from="219789403" to="133527351#0"/>
    <trip id="veh223" type="veh_passenger" depart="193.53" departLane="best" departSpeed="max" from="106686089" to="42798789#0"/>
    <trip id="veh224" type="veh_passenger" depart="194.40" departLane="best" departSpeed="max" from="218002362#0" to="13879837#1"/>
    <trip id="veh225" type="veh_passenger" depart="195.26" departLane="best" departSpeed="max" from="216752338" to="34392045"/>
    <trip id="veh226" type="veh_passenger" depart="196.13" departLane="best" departSpeed="max" from="106686089" to="42798789#0"/>
    <trip id="veh227" type="veh_passenger" depart="197.00" departLane="best" departSpeed="max" from="42785369#0" to="-107221737#2"/>
    <trip id="veh228" type="veh_passenger" depart="197.87" departLane="best" departSpeed="max" from="42785369#0" to="-218002362#1"/>
    <trip id="veh229" type="veh_passenger" depart="198.74" departLane="best" departSpeed="max" from="107605327" to="42801118#0"/>
    <trip id="veh230" type="veh_passenger" depart="199.60" departLane="best" departSpeed="max" from="219789403" to="-54290282#2"/>
    <trip id="veh231" type="veh_passenger" depart="200.47" departLane="best" departSpeed="max" from="-1052540470#2" to="70972311"/>
    <trip id="veh232" type="veh_passenger" depart="201.34" departLane="best" departSpeed="max" from="218002346" to="34392045"/>
    <trip id="veh233" type="veh_passenger" depart="202.21" departLane="best" departSpeed="max" from="219789403" to="243492724#0"/>
    <trip id="veh234" type="veh_passenger" depart="203.08" departLane="best" departSpeed="max" from="218002346" to="42785577#0"/>
    <trip id="veh235" type="veh_passenger" depart="203.94" departLane="best" departSpeed="max" from="-13879837#1" to="-290856107#2"/>