<?xml version="1.0" encoding="UTF-8"?>

<!-- generated on 2025-01-07 18:13:15 by Eclipse SUMO netconvert Version 1.12.0
<configuration xmlns:xsi="http://www.w3.org/2001/XMLSchema-instance" xsi:noNamespaceSchemaLocation="http://sumo.dlr.de/xsd/netconvertConfiguration.xsd">

    <input>
        <osm-files value="./map.osm"/>
    </input>

    <output>
        <output-file value="heilbronn.net.xml"/>
    </output>

    <projection>
        <proj.utm value="true"/>
    </projection>

    <processing>
        <geometry.remove value="true"/>
    </processing>

    <tls_building>
        <tls.discard-simple value="true"/>
        <tls.join value="true"/>
        <tls.guess-signals value="true"/>
        <tls.default-type value="actuated"/>
    </tls_building>

    <ramp_guessing>
        <ramps.guess value="true"/>
    </ramp_guessing>

    <junctions>
        <junctions.join value="true"/>
    </junctions>

    <report>
        <aggregate-warnings value="5"/>
    </report>

</configuration>
-->

<net version="1.9" junctionCornerDetail="5" limitTurnSpeed="5.50" xmlns:xsi="http://www.w3.org/2001/XMLSchema-instance" xsi:noNamespaceSchemaLocation="http://sumo.dlr.de/xsd/net_file.xsd">

    <location netOffset="-516259.20,-5442165.58" convBoundary="0.00,0.00,1471.33,1768.36" origBoundary="9.222935,49.132099,9.243059,49.148004" projParameter="+proj=utm +zone=32 +ellps=WGS84 +datum=WGS84 +units=m +no_defs"/>

    <type id="highway.bridleway" priority="1" numLanes="1" speed="2.78" allow="pedestrian" oneway="1" width="2.00"/>
    <type id="highway.bus_guideway" priority="1" numLanes="1" speed="27.78" allow="bus" oneway="1"/>
    <type id="highway.cycleway" priority="1" numLanes="1" speed="8.33" allow="bicycle" oneway="0" width="1.00"/>
    <type id="highway.footway" priority="1" numLanes="1" speed="2.78" allow="pedestrian" oneway="1" width="2.00"/>
    <type id="highway.ford" priority="1" numLanes="1" speed="2.78" allow="army" oneway="0"/>
    <type id="highway.living_street" priority="2" numLanes="1" speed="2.78" disallow="tram rail_urban rail rail_electric rail_fast ship" oneway="0"/>
    <type id="highway.motorway" priority="14" numLanes="2" speed="39.44" allow="private emergency authority army vip passenger hov taxi bus coach delivery truck trailer motorcycle evehicle custom1 custom2" oneway="1"/>
    <type id="highway.motorway_link" priority="9" numLanes="1" speed="22.22" allow="private emergency authority army vip passenger hov taxi bus coach delivery truck trailer motorcycle evehicle custom1 custom2" oneway="1"/>
    <type id="highway.path" priority="1" numLanes="1" speed="2.78" allow="pedestrian bicycle" oneway="0" width="2.00"/>
    <type id="highway.pedestrian" priority="1" numLanes="1" speed="2.78" allow="pedestrian" oneway="1" width="2.00"/>
    <type id="highway.primary" priority="12" numLanes="2" speed="27.78" disallow="tram rail_urban rail rail_electric rail_fast ship" oneway="0"/>
    <type id="highway.primary_link" priority="7" numLanes="1" speed="22.22" disallow="tram rail_urban rail rail_electric rail_fast ship" oneway="0"/>
    <type id="highway.raceway" priority="15" numLanes="2" speed="83.33" allow="vip" oneway="0"/>
    <type id="highway.residential" priority="3" numLanes="1" speed="13.89" disallow="tram rail_urban rail rail_electric rail_fast ship" oneway="0"/>
    <type id="highway.secondary" priority="11" numLanes="1" speed="27.78" disallow="tram rail_urban rail rail_electric rail_fast ship" oneway="0"/>
    <type id="highway.secondary_link" priority="6" numLanes="1" speed="22.22" disallow="tram rail_urban rail rail_electric rail_fast ship" oneway="0"/>
    <type id="highway.service" priority="1" numLanes="1" speed="5.56" allow="pedestrian delivery bicycle" oneway="0"/>
    <type id="highway.stairs" priority="1" numLanes="1" speed="1.39" allow="pedestrian" oneway="1" width="2.00"/>
    <type id="highway.step" priority="1" numLanes="1" speed="1.39" allow="pedestrian" oneway="1" width="2.00"/>
    <type id="highway.steps" priority="1" numLanes="1" speed="1.39" allow="pedestrian" oneway="1" width="2.00"/>
    <type id="highway.tertiary" priority="10" numLanes="1" speed="22.22" disallow="tram rail_urban rail rail_electric rail_fast ship" oneway="0"/>
    <type id="highway.tertiary_link" priority="5" numLanes="1" speed="22.22" disallow="tram rail_urban rail rail_electric rail_fast ship" oneway="0"/>
    <type id="highway.track" priority="1" numLanes="1" speed="5.56" allow="pedestrian motorcycle moped bicycle" oneway="0"/>
    <type id="highway.trunk" priority="13" numLanes="2" speed="27.78" disallow="pedestrian bicycle tram rail_urban rail rail_electric rail_fast ship" oneway="0"/>
    <type id="highway.trunk_link" priority="8" numLanes="1" speed="22.22" disallow="pedestrian bicycle tram rail_urban rail rail_electric rail_fast ship" oneway="0"/>
    <type id="highway.unclassified" priority="4" numLanes="1" speed="13.89" disallow="tram rail_urban rail rail_electric rail_fast ship" oneway="0"/>
    <type id="highway.unsurfaced" priority="1" numLanes="1" speed="8.33" disallow="tram rail_urban rail rail_electric rail_fast ship" oneway="0"/>
    <type id="railway.highspeed" priority="21" numLanes="1" speed="69.44" allow="rail_fast" oneway="1"/>
    <type id="railway.light_rail" priority="19" numLanes="1" speed="27.78" allow="rail_urban" oneway="1"/>
    <type id="railway.preserved" priority="16" numLanes="1" speed="27.78" allow="rail" oneway="1"/>
    <type id="railway.rail" priority="20" numLanes="1" speed="44.44" allow="rail" oneway="1"/>
    <type id="railway.subway" priority="18" numLanes="1" speed="27.78" allow="rail_urban" oneway="1"/>
    <type id="railway.tram" priority="17" numLanes="1" speed="13.89" allow="tram" oneway="1"/>

    <edge id=":1102271198_0" function="internal">
        <lane id=":1102271198_0_0" index="0" disallow="tram rail_urban rail rail_electric rail_fast ship" speed="8.33" length="9.51" shape="406.54,1268.45 405.49,1259.00"/>
    </edge>
    <edge id=":1102271198_1" function="internal">
        <lane id=":1102271198_1_0" index="0" allow="pedestrian delivery bicycle" speed="6.95" length="3.22" shape="406.54,1268.45 406.62,1265.74 406.83,1265.27"/>
    </edge>
    <edge id=":1102271198_7" function="internal">
        <lane id=":1102271198_7_0" index="0" allow="pedestrian delivery bicycle" speed="6.95" length="7.01" shape="406.83,1265.27 407.58,1263.65 409.43,1262.18 412.16,1261.33"/>
    </edge>
    <edge id=":1102271198_2" function="internal">
        <lane id=":1102271198_2_0" index="0" allow="pedestrian delivery bicycle" speed="5.22" length="5.25" shape="412.70,1264.48 411.26,1264.92 410.28,1265.66 409.77,1266.71 409.72,1268.06"/>
    </edge>
    <edge id=":1102271198_3" function="internal">
        <lane id=":1102271198_3_0" index="0" allow="pedestrian delivery bicycle" speed="6.81" length="10.50" shape="412.70,1264.48 409.80,1264.56 407.63,1263.67 406.19,1261.82 405.49,1259.00"/>
    </edge>
    <edge id=":1102271198_4" function="internal">
        <lane id=":1102271198_4_0" index="0" allow="pedestrian delivery bicycle" speed="3.65" length="4.67" shape="412.70,1264.48 411.38,1263.90 410.86,1263.18 411.12,1262.32 412.16,1261.33"/>
    </edge>
    <edge id=":1102271198_5" function="internal">
        <lane id=":1102271198_5_0" index="0" allow="pedestrian delivery bicycle" speed="4.97" length="5.08" shape="408.67,1258.67 409.01,1260.04 409.71,1260.94 410.76,1261.37 412.16,1261.33"/>
    </edge>
    <edge id=":1102271198_6" function="internal">
        <lane id=":1102271198_6_0" index="0" disallow="tram rail_urban rail rail_electric rail_fast ship" speed="8.33" length="9.44" shape="408.67,1258.67 409.72,1268.06"/>
    </edge>
    <edge id=":1102271200_0" function="internal">
        <lane id=":1102271200_0_0" index="0" allow="pedestrian delivery bicycle" speed="5.02" length="5.02" shape="500.43,1227.42 500.12,1226.08 499.46,1225.16 498.44,1224.67 497.07,1224.60"/>
    </edge>
    <edge id=":1102271200_1" function="internal">
        <lane id=":1102271200_1_0" index="0" disallow="tram rail_urban rail rail_electric rail_fast ship" speed="11.11" length="9.30" shape="500.43,1227.42 499.76,1218.07"/>
        <lane id=":1102271200_1_1" index="1" disallow="tram rail_urban rail rail_electric rail_fast ship" speed="11.11" length="9.30" shape="503.62,1227.17 502.95,1217.87"/>
        <lane id=":1102271200_1_2" index="2" disallow="tram rail_urban rail rail_electric rail_fast ship" speed="11.11" length="9.30" shape="506.81,1226.91 506.14,1217.67"/>
        <lane id=":1102271200_1_3" index="3" disallow="tram rail_urban rail rail_electric rail_fast ship" speed="11.11" length="9.30" shape="510.00,1226.66 509.34,1217.46"/>
    </edge>
    <edge id=":1102271200_5" function="internal">
        <lane id=":1102271200_5_0" index="0" allow="pedestrian delivery bicycle" speed="5.12" length="5.08" shape="496.77,1221.41 498.15,1221.09 499.10,1220.43 499.64,1219.42 499.76,1218.07"/>
        <lane id=":1102271200_5_1" index="1" allow="pedestrian delivery bicycle" speed="6.16" length="7.80" shape="496.77,1221.41 499.54,1220.97 501.50,1220.23 502.63,1219.19 502.95,1217.87"/>
    </edge>
    <edge id=":1102271200_7" function="internal">
        <lane id=":1102271200_7_0" index="0" allow="pedestrian delivery bicycle" speed="3.65" length="4.67" shape="496.77,1221.41 498.04,1222.10 498.51,1222.86 498.19,1223.69 497.07,1224.60"/>
    </edge>
    <edge id=":1102271209_0" function="internal">
        <lane id=":1102271209_0_0" index="0" allow="pedestrian delivery bicycle" speed="3.65" length="4.67" shape="445.00,1246.45 446.30,1247.08 446.80,1247.81 446.52,1248.66 445.44,1249.62"/>
    </edge>
    <edge id=":1102271214_0" function="internal">
        <lane id=":1102271214_0_0" index="0" allow="pedestrian delivery bicycle" speed="3.65" length="4.67" shape="451.79,1257.93 453.10,1258.52 453.63,1259.25 453.37,1260.10 452.31,1261.09"/>
    </edge>
    <edge id=":1102271217_0" function="internal">
        <lane id=":1102271217_0_0" index="0" allow="pedestrian delivery bicycle" speed="5.12" length="5.13" shape="405.40,1258.09 405.06,1256.77 404.35,1255.87 403.28,1255.38 401.84,1255.31"/>
    </edge>
    <edge id=":1102271217_1" function="internal">
        <lane id=":1102271217_1_0" index="0" disallow="tram rail_urban rail rail_electric rail_fast ship" speed="8.33" length="9.44" shape="405.40,1258.09 404.33,1248.71"/>
    </edge>
    <edge id=":1102271217_2" function="internal">
        <lane id=":1102271217_2_0" index="0" allow="pedestrian delivery bicycle" speed="6.94" length="1.74" shape="405.40,1258.09 405.47,1256.36"/>
    </edge>
    <edge id=":1102271217_14" function="internal">
        <lane id=":1102271217_14_0" index="0" allow="pedestrian delivery bicycle" speed="6.94" length="8.42" shape="405.47,1256.36 405.51,1255.34 406.48,1253.26 408.31,1251.84 410.99,1251.08"/>
    </edge>
    <edge id=":1102271217_3" function="internal">
        <lane id=":1102271217_3_0" index="0" allow="pedestrian delivery bicycle" speed="5.15" length="5.12" shape="411.42,1254.25 410.06,1254.63 409.13,1255.34 408.64,1256.39 408.58,1257.77"/>
    </edge>
    <edge id=":1102271217_4" function="internal">
        <lane id=":1102271217_4_0" index="0" allow="pedestrian delivery bicycle" speed="5.56" length="9.64" shape="411.42,1254.25 401.84,1255.31"/>
    </edge>
    <edge id=":1102271217_5" function="internal">
        <lane id=":1102271217_5_0" index="0" allow="pedestrian delivery bicycle" speed="6.88" length="10.29" shape="411.42,1254.25 408.62,1254.23 406.50,1253.29 405.07,1251.46 404.33,1248.71"/>
    </edge>
    <edge id=":1102271217_6" function="internal">
        <lane id=":1102271217_6_0" index="0" allow="pedestrian delivery bicycle" speed="3.65" length="4.67" shape="411.42,1254.25 410.13,1253.62 409.62,1252.88 409.91,1252.03 410.99,1251.08"/>
    </edge>
    <edge id=":1102271217_7" function="internal">
        <lane id=":1102271217_7_0" index="0" allow="pedestrian delivery bicycle" speed="5.06" length="5.09" shape="407.50,1248.31 407.87,1249.68 408.57,1250.60 409.61,1251.06 410.99,1251.08"/>
    </edge>
    <edge id=":1102271217_8" function="internal">
        <lane id=":1102271217_8_0" index="0" disallow="tram rail_urban rail rail_electric rail_fast ship" speed="8.33" length="9.52" shape="407.50,1248.31 408.58,1257.77"/>
    </edge>
    <edge id=":1102271217_9" function="internal">
        <lane id=":1102271217_9_0" index="0" allow="pedestrian delivery bicycle" speed="6.83" length="1.83" shape="407.50,1248.31 407.47,1250.14"/>
    </edge>
    <edge id=":1102271217_15" function="internal">
        <lane id=":1102271217_15_0" index="0" allow="pedestrian delivery bicycle" speed="6.83" length="8.53" shape="407.47,1250.14 407.45,1251.17 406.49,1253.28 404.62,1254.67 401.84,1255.31"/>
    </edge>
    <edge id=":1102271217_10" function="internal">
        <lane id=":1102271217_10_0" index="0" allow="pedestrian delivery bicycle" speed="5.00" length="5.05" shape="401.57,1252.12 402.92,1251.81 403.84,1251.14 404.30,1250.10 404.33,1248.71"/>
    </edge>
    <edge id=":1102271217_11" function="internal">
        <lane id=":1102271217_11_0" index="0" allow="pedestrian delivery bicycle" speed="5.56" length="9.48" shape="401.57,1252.12 410.99,1251.08"/>
    </edge>
    <edge id=":1102271217_12" function="internal">
        <lane id=":1102271217_12_0" index="0" allow="pedestrian delivery bicycle" speed="6.92" length="10.23" shape="401.57,1252.12 404.40,1252.27 406.51,1253.26 407.91,1255.09 408.58,1257.77"/>
    </edge>
    <edge id=":1102271217_13" function="internal">
        <lane id=":1102271217_13_0" index="0" allow="pedestrian delivery bicycle" speed="3.65" length="4.67" shape="401.57,1252.12 402.83,1252.82 403.30,1253.58 402.97,1254.41 401.84,1255.31"/>
    </edge>
    <edge id=":1109291619_0" function="internal">
        <lane id=":1109291619_0_0" index="0" disallow="tram rail_urban rail rail_electric rail_fast ship" speed="7.94" length="14.33" shape="367.55,889.56 367.69,885.62 369.07,882.71 371.69,880.84 375.55,880.01"/>
    </edge>
    <edge id=":1109291619_1" function="internal">
        <lane id=":1109291619_1_0" index="0" disallow="tram rail_urban rail rail_electric rail_fast ship" speed="3.65" length="4.67" shape="367.55,889.56 368.22,888.29 368.97,887.80 369.81,888.12 370.73,889.22"/>
    </edge>
    <edge id=":1109291619_2" function="internal">
        <lane id=":1109291619_2_0" index="0" disallow="tram rail_urban rail rail_electric rail_fast ship" speed="6.43" length="9.03" shape="375.77,883.20 373.34,883.72 371.69,884.90 370.82,886.74 370.73,889.22"/>
    </edge>
    <edge id=":1109291619_3" function="internal">
        <lane id=":1109291619_3_0" index="0" disallow="tram rail_urban rail rail_electric rail_fast ship" speed="3.65" length="4.67" shape="375.77,883.20 374.52,882.48 374.06,881.71 374.41,880.89 375.55,880.01"/>
    </edge>
    <edge id=":1109291619_4" function="internal">
        <lane id=":1109291619_4_0" index="0" disallow="tram rail_urban rail rail_electric rail_fast ship" speed="8.33" length="14.56" shape="361.24,882.61 364.87,882.10 368.39,881.31 371.91,880.51 375.55,880.01"/>
    </edge>
    <edge id=":1109291619_5" function="internal">
        <lane id=":1109291619_5_0" index="0" disallow="tram rail_urban rail rail_electric rail_fast ship" speed="7.81" length="13.06" shape="361.24,882.61 365.10,882.80 367.97,883.96 369.85,886.10 370.73,889.22"/>
    </edge>
    <edge id=":1156628574_0" function="internal">
        <lane id=":1156628574_0_0" index="0" disallow="tram rail_urban rail rail_electric rail_fast ship" speed="3.65" length="4.67" shape="1048.47,1242.44 1049.76,1243.08 1050.26,1243.82 1049.96,1244.67 1048.87,1245.61"/>
    </edge>
    <edge id=":1168653421_0" function="internal">
        <lane id=":1168653421_0_0" index="0" allow="pedestrian delivery bicycle" speed="5.05" length="4.99" shape="455.68,373.65 454.35,373.96 453.43,374.61 452.93,375.62 452.84,376.99"/>
    </edge>
    <edge id=":1168653421_1" function="internal">
        <lane id=":1168653421_1_0" index="0" allow="pedestrian delivery bicycle" speed="3.65" length="4.67" shape="455.68,373.65 454.42,372.95 453.95,372.19 454.28,371.36 455.41,370.46"/>
    </edge>
    <edge id=":1168653421_2" function="internal">
        <lane id=":1168653421_2_0" index="0" allow="pedestrian delivery bicycle" speed="5.07" length="5.00" shape="452.02,367.66 452.34,368.98 453.02,369.89 454.04,370.38 455.41,370.46"/>
    </edge>
    <edge id=":1168653421_3" function="internal">
        <lane id=":1168653421_3_0" index="0" disallow="tram rail_urban rail rail_electric rail_fast ship" speed="11.11" length="9.33" shape="452.02,367.66 452.84,376.99"/>
        <lane id=":1168653421_3_1" index="1" disallow="tram rail_urban rail rail_electric rail_fast ship" speed="11.11" length="9.33" shape="448.83,367.98 449.65,377.23"/>
    </edge>
    <edge id=":1168653495_0" function="internal">
        <lane id=":1168653495_0_0" index="0" allow="pedestrian delivery bicycle" speed="5.14" length="5.14" shape="452.64,340.82 451.23,341.18 450.28,341.88 449.76,342.91 449.69,344.27"/>
    </edge>
    <edge id=":1168653495_1" function="internal">
        <lane id=":1168653495_1_0" index="0" allow="pedestrian delivery bicycle" speed="3.65" length="4.67" shape="452.64,340.82 451.35,340.17 450.85,339.43 451.15,338.58 452.24,337.64"/>
    </edge>
    <edge id=":1168653495_2" function="internal">
        <lane id=":1168653495_2_0" index="0" allow="pedestrian delivery bicycle" speed="5.00" length="5.05" shape="448.83,334.88 449.14,336.24 449.81,337.15 450.85,337.62 452.24,337.64"/>
    </edge>
    <edge id=":1168653495_3" function="internal">
        <lane id=":1168653495_3_0" index="0" disallow="tram rail_urban rail rail_electric rail_fast ship" speed="11.11" length="9.45" shape="448.83,334.88 449.69,344.27"/>
        <lane id=":1168653495_3_1" index="1" disallow="tram rail_urban rail rail_electric rail_fast ship" speed="11.11" length="9.45" shape="445.64,335.15 446.51,344.58"/>
    </edge>
    <edge id=":1168653539_0" function="internal">
        <lane id=":1168653539_0_0" index="0" disallow="tram rail_urban rail rail_electric rail_fast ship" speed="3.65" length="4.67" shape="603.86,414.94 605.12,415.63 605.59,416.40 605.26,417.23 604.14,418.13"/>
    </edge>
    <edge id=":1168653561_0" function="internal">
        <lane id=":1168653561_0_0" index="0" allow="pedestrian delivery bicycle" speed="3.65" length="4.67" shape="521.44,327.35 522.75,327.96 523.27,328.69 522.99,329.54 521.92,330.51"/>
    </edge>
    <edge id=":1168653582_0" function="internal">
        <lane id=":1168653582_0_0" index="0" allow="pedestrian delivery bicycle" speed="3.65" length="4.67" shape="545.70,338.35 546.36,337.07 547.12,336.59 547.96,336.90 548.88,338.00"/>
    </edge>
    <edge id=":11696936740_0" function="internal">
        <lane id=":11696936740_0_0" index="0" allow="pedestrian delivery bicycle" speed="4.30" length="3.39" shape="504.35,1276.71 503.97,1276.25 503.12,1276.22 502.11,1276.39 501.21,1276.55"/>
    </edge>
    <edge id=":11696936740_1" function="internal">
        <lane id=":11696936740_1_0" index="0" disallow="tram rail_urban rail rail_electric rail_fast ship" speed="11.11" length="6.74" shape="504.35,1276.71 503.82,1270.00"/>
        <lane id=":11696936740_1_1" index="1" disallow="tram rail_urban rail rail_electric rail_fast ship" speed="11.11" length="6.74" shape="507.54,1276.46 507.01,1269.75"/>
        <lane id=":11696936740_1_2" index="2" disallow="tram rail_urban rail rail_electric rail_fast ship" speed="11.11" length="6.74" shape="510.73,1276.21 510.20,1269.49"/>
        <lane id=":11696936740_1_3" index="3" disallow="tram rail_urban rail rail_electric rail_fast ship" speed="11.11" length="6.74" shape="513.92,1275.95 513.39,1269.24"/>
    </edge>
    <edge id=":11696936740_5" function="internal">
        <lane id=":11696936740_5_0" index="0" allow="pedestrian delivery bicycle" speed="5.08" length="5.05" shape="500.91,1273.36 502.27,1273.04 503.21,1272.38 503.73,1271.36 503.82,1270.00"/>
        <lane id=":11696936740_5_1" index="1" allow="pedestrian delivery bicycle" speed="6.12" length="7.79" shape="500.91,1273.36 503.67,1272.92 505.60,1272.16 506.72,1271.11 507.01,1269.75"/>
    </edge>
    <edge id=":11696936740_7" function="internal">
        <lane id=":11696936740_7_0" index="0" allow="pedestrian delivery bicycle" speed="3.65" length="4.67" shape="500.91,1273.36 502.18,1274.05 502.65,1274.81 502.33,1275.64 501.21,1276.55"/>
    </edge>
    <edge id=":11696936742_0" function="internal">
        <lane id=":11696936742_0_0" index="0" allow="pedestrian delivery bicycle" speed="5.05" length="5.01" shape="479.33,1249.09 478.99,1247.76 478.30,1246.85 477.28,1246.38 475.91,1246.33"/>
    </edge>
    <edge id=":11696936742_1" function="internal">
        <lane id=":11696936742_1_0" index="0" allow="pedestrian delivery bicycle" speed="5.56" length="10.17" shape="479.33,1249.09 479.42,1246.30 480.37,1244.21 482.20,1242.82 484.90,1242.13"/>
    </edge>
    <edge id=":11696936742_2" function="internal">
        <lane id=":11696936742_2_0" index="0" allow="pedestrian delivery bicycle" speed="3.65" length="4.67" shape="479.33,1249.09 479.99,1247.81 480.74,1247.32 481.58,1247.63 482.51,1248.73"/>
    </edge>
    <edge id=":11696936742_3" function="internal">
        <lane id=":11696936742_3_0" index="0" allow="pedestrian delivery bicycle" speed="5.04" length="5.00" shape="485.25,1245.31 483.92,1245.65 483.02,1246.34 482.55,1247.36 482.51,1248.73"/>
    </edge>
    <edge id=":11696936742_4" function="internal">
        <lane id=":11696936742_4_0" index="0" allow="pedestrian delivery bicycle" speed="5.56" length="9.40" shape="485.25,1245.31 475.91,1246.33"/>
    </edge>
    <edge id=":11696936742_5" function="internal">
        <lane id=":11696936742_5_0" index="0" allow="pedestrian delivery bicycle" speed="3.65" length="4.67" shape="485.25,1245.31 483.97,1244.65 483.49,1243.90 483.80,1243.06 484.90,1242.13"/>
    </edge>
    <edge id=":11696936742_6" function="internal">
        <lane id=":11696936742_6_0" index="0" allow="pedestrian delivery bicycle" speed="5.56" length="9.40" shape="475.56,1243.15 484.90,1242.13"/>
    </edge>
    <edge id=":11696936742_7" function="internal">
        <lane id=":11696936742_7_0" index="0" allow="pedestrian delivery bicycle" speed="5.56" length="10.16" shape="475.56,1243.15 478.34,1243.24 480.42,1244.21 481.81,1246.04 482.51,1248.73"/>
    </edge>
    <edge id=":11696936742_8" function="internal">
        <lane id=":11696936742_8_0" index="0" allow="pedestrian delivery bicycle" speed="3.65" length="4.67" shape="475.56,1243.15 476.84,1243.82 477.32,1244.57 477.01,1245.41 475.91,1246.33"/>
    </edge>
    <edge id=":11696962643_0" function="internal">
        <lane id=":11696962643_0_0" index="0" allow="pedestrian delivery bicycle" speed="5.01" length="5.03" shape="501.96,1246.65 501.65,1245.30 500.99,1244.39 499.96,1243.90 498.58,1243.86"/>
    </edge>
    <edge id=":11696962643_1" function="internal">
        <lane id=":11696962643_1_0" index="0" disallow="tram rail_urban rail rail_electric rail_fast ship" speed="11.11" length="9.40" shape="501.96,1246.65 501.21,1237.28"/>
        <lane id=":11696962643_1_1" index="1" disallow="tram rail_urban rail rail_electric rail_fast ship" speed="11.11" length="9.40" shape="505.15,1246.40 504.40,1237.03"/>
        <lane id=":11696962643_1_2" index="2" disallow="tram rail_urban rail rail_electric rail_fast ship" speed="11.11" length="9.40" shape="508.34,1246.15 507.59,1236.77"/>
        <lane id=":11696962643_1_3" index="3" disallow="tram rail_urban rail rail_electric rail_fast ship" speed="11.11" length="9.40" shape="511.53,1245.89 510.78,1236.52"/>
    </edge>
    <edge id=":11696962643_5" function="internal">
        <lane id=":11696962643_5_0" index="0" allow="pedestrian delivery bicycle" speed="5.14" length="5.12" shape="498.23,1240.68 499.63,1240.33 500.59,1239.65 501.12,1238.63 501.21,1237.28"/>
        <lane id=":11696962643_5_1" index="1" allow="pedestrian delivery bicycle" speed="6.17" length="7.84" shape="498.23,1240.68 501.02,1240.19 502.98,1239.41 504.10,1238.36 504.40,1237.03"/>
    </edge>
    <edge id=":11696962643_7" function="internal">
        <lane id=":11696962643_7_0" index="0" allow="pedestrian delivery bicycle" speed="3.65" length="4.67" shape="498.23,1240.68 499.51,1241.34 500.00,1242.09 499.68,1242.93 498.58,1243.86"/>
    </edge>
    <edge id=":11696962644_0" function="internal">
        <lane id=":11696962644_0_0" index="0" allow="pedestrian delivery bicycle" speed="5.56" length="3.00" shape="445.61,1249.64 442.63,1250.00"/>
    </edge>
    <edge id=":11696962644_1" function="internal">
        <lane id=":11696962644_1_0" index="0" allow="pedestrian delivery bicycle" speed="3.27" length="3.26" shape="445.61,1249.64 444.80,1246.47"/>
    </edge>
    <edge id=":11696962644_2" function="internal">
        <lane id=":11696962644_2_0" index="0" allow="pedestrian delivery bicycle" speed="3.65" length="4.68" shape="445.61,1249.64 444.31,1249.01 443.81,1248.27 444.10,1247.42 445.18,1246.47"/>
    </edge>
    <edge id=":11696962644_3" function="internal">
        <lane id=":11696962644_3_0" index="0" allow="pedestrian delivery bicycle" speed="5.56" length="2.63" shape="442.20,1246.83 444.80,1246.47"/>
    </edge>
    <edge id=":11696962644_4" function="internal">
        <lane id=":11696962644_4_0" index="0" allow="pedestrian delivery bicycle" speed="5.56" length="3.00" shape="442.20,1246.83 445.18,1246.47"/>
    </edge>
    <edge id=":11696962644_5" function="internal">
        <lane id=":11696962644_5_0" index="0" allow="pedestrian delivery bicycle" speed="3.65" length="4.67" shape="442.20,1246.83 443.50,1247.46 444.00,1248.20 443.71,1249.05 442.63,1250.00"/>
    </edge>
    <edge id=":11696962644_6" function="internal">
        <lane id=":11696962644_6_0" index="0" allow="pedestrian delivery bicycle" speed="5.56" length="2.63" shape="445.24,1249.64 442.63,1250.00"/>
    </edge>
    <edge id=":11696962644_7" function="internal">
        <lane id=":11696962644_7_0" index="0" allow="pedestrian delivery bicycle" speed="3.25" length="3.18" shape="445.24,1249.64 445.18,1246.47"/>
    </edge>
    <edge id=":11696962644_8" function="internal">
        <lane id=":11696962644_8_0" index="0" allow="pedestrian delivery bicycle" speed="3.65" length="4.67" shape="445.24,1249.64 443.94,1249.02 443.44,1248.28 443.72,1247.43 444.80,1246.47"/>
    </edge>
    <edge id=":11696972561_0" function="internal">
        <lane id=":11696972561_0_0" index="0" disallow="tram rail_urban rail rail_electric rail_fast ship" speed="8.33" length="9.41" shape="418.01,1349.76 416.49,1340.48"/>
    </edge>
    <edge id=":11696972561_1" function="internal">
        <lane id=":11696972561_1_0" index="0" allow="pedestrian delivery bicycle" speed="6.82" length="3.30" shape="418.01,1349.76 417.96,1346.89 418.12,1346.49"/>
    </edge>
    <edge id=":11696972561_7" function="internal">
        <lane id=":11696972561_7_0" index="0" allow="pedestrian delivery bicycle" speed="6.82" length="7.09" shape="418.12,1346.49 418.84,1344.74 420.67,1343.29 423.44,1342.56"/>
    </edge>
    <edge id=":11696972561_2" function="internal">
        <lane id=":11696972561_2_0" index="0" allow="pedestrian delivery bicycle" speed="4.99" length="5.06" shape="423.81,1345.74 422.46,1346.10 421.57,1346.80 421.14,1347.85 421.17,1349.24"/>
    </edge>
    <edge id=":11696972561_3" function="internal">
        <lane id=":11696972561_3_0" index="0" allow="pedestrian delivery bicycle" speed="6.95" length="10.18" shape="423.81,1345.74 420.98,1345.69 418.81,1344.79 417.32,1343.05 416.49,1340.48"/>
    </edge>
    <edge id=":11696972561_4" function="internal">
        <lane id=":11696972561_4_0" index="0" allow="pedestrian delivery bicycle" speed="3.65" length="4.67" shape="423.81,1345.74 422.53,1345.08 422.04,1344.34 422.34,1343.50 423.44,1342.56"/>
    </edge>
    <edge id=":11696972561_5" function="internal">
        <lane id=":11696972561_5_0" index="0" allow="pedestrian delivery bicycle" speed="5.20" length="5.19" shape="419.65,1339.96 420.07,1341.24 420.84,1342.10 421.97,1342.54 423.44,1342.56"/>
    </edge>
    <edge id=":11696972561_6" function="internal">
        <lane id=":11696972561_6_0" index="0" disallow="tram rail_urban rail rail_electric rail_fast ship" speed="8.33" length="9.41" shape="419.65,1339.96 421.17,1349.24"/>
    </edge>
    <edge id=":11696972562_0" function="internal">
        <lane id=":11696972562_0_0" index="0" allow="pedestrian delivery bicycle" speed="3.65" length="4.67" shape="459.14,1338.43 460.42,1339.09 460.91,1339.83 460.60,1340.68 459.50,1341.61"/>
    </edge>
    <edge id=":11729584234_0" function="internal">
        <lane id=":11729584234_0_0" index="0" disallow="tram rail_urban rail rail_electric rail_fast ship" speed="3.65" length="4.67" shape="8.08,778.95 6.83,778.24 6.37,777.47 6.72,776.64 7.86,775.76"/>
    </edge>
    <edge id=":11730141613_0" function="internal">
        <lane id=":11730141613_0_0" index="0" disallow="tram rail_urban rail rail_electric rail_fast ship" speed="8.33" length="9.40" shape="339.81,1320.98 330.45,1321.89"/>
    </edge>
    <edge id=":11730141613_1" function="internal">
        <lane id=":11730141613_1_0" index="0" allow="pedestrian delivery bicycle" speed="6.94" length="3.21" shape="339.81,1320.98 337.08,1320.85 336.66,1320.64"/>
    </edge>
    <edge id=":11730141613_7" function="internal">
        <lane id=":11730141613_7_0" index="0" allow="pedestrian delivery bicycle" speed="6.94" length="6.97" shape="336.66,1320.64 335.02,1319.85 333.61,1318.00 332.88,1315.28"/>
    </edge>
    <edge id=":11730141613_2" function="internal">
        <lane id=":11730141613_2_0" index="0" allow="pedestrian delivery bicycle" speed="5.14" length="5.13" shape="336.05,1314.87 336.42,1316.26 337.12,1317.21 338.15,1317.72 339.50,1317.80"/>