<configuration>
    <input>
        <net-file value="heilbronn.net.xml.gz"/>
        <route-files value="heilbronn.passenger.trips.xml"/>
    </input>
    <time>
        <begin value="0"/>
        <end value="100000"/>
    </time>
</configuration>