<configuration>
    <input>
        <net-file value="two-way-single-intersection.net.xml"/>
        <route-files value="two-way-single-intersection-gen.rou.xml"/>
    </input>
    <time>
        <begin value="0"/>
        <end value="100000"/>
    </time>
</configuration>
